tests/fuzzer/corpus_json/21_random_033.json
{
  "version": "1.0",
  "type": "input",
  "is_batch": false,
  "attributes": {},
  "data": {
    "node": [
      {
        "id": 0,
        "u_rated": 400.0
      },
      {
        "id": 1,
        "u_rated": 400.0
      },
      {
        "id": 2,
        "u_rated": 400.0
      },
      {
        "id": 3,
        "u_rated": 400.0
      },
      {
        "id": 4,
        "u_rated": 400.0
      },
      {
        "id": 5,
        "u_rated": 400.0
      },
      {
        "id": 6,
        "u_rated": 400.0
      },
      {
        "id": 7,
        "u_rated": 400.0
      },
      {
        "id": 8,
        "u_rated": 400.0
      },
      {
        "id": 9,
        "u_rated": 400.0
      },
      {
        "id": 10,
        "u_rated": 400.0
      }
    ],
    "source": [
      {
        "id": 11,
        "node": 0,
        "status": 1,
        "u_ref": 1.0634007719766547,
        "u_ref_angle": 0.0,
        "sk": 632269772.2792207,
        "rx_ratio": 0.1386454272231724,
        "z01_ratio": 1.0
      }
    ],
    "line": [
      {
        "id": 12,
        "from_node": 0,
        "to_node": 1,
        "from_status": 1,
        "to_status": 1,
        "r1": 4.454054777796406,
        "x1": 4.54414261606934,
        "c1": 1.865125594975845e-07,
        "tan1": 0.0,
        "r0": 0.3,
        "x0": 0.3,
        "c0": 1e-09,
        "tan0": 0.0,
        "i_n": 655.209838346751
      },
      {
        "id": 13,
        "from_node": 1,
        "to_node": 2,
        "from_status": 1,
        "to_status": 1,
        "r1": 3.085586389284836,
        "x1": 2.5169691935552367,
        "c1": 9.661979651974596e-07,
        "tan1": 0.0,
        "r0": 0.3,
        "x0": 0.3,
        "c0": 1e-09,
        "tan0": 0.0,
        "i_n": 532.983562619652
      },
      {
        "id": 14,
        "from_node": 2,
        "to_node": 3,
        "from_status": 1,
        "to_status": 1,
        "r1": 2.2262704850064425,
        "x1": 4.717805783186785,
        "c1": 6.356198271421528e-07,
        "tan1": 0.0,
        "r0": 0.3,
        "x0": 0.3,
        "c0": 1e-09,
        "tan0": 0.0,
        "i_n": 308.2815119596683
      },
      {
        "id": 15,
        "from_node": 3,
        "to_node": 4,
        "from_status": 1,
        "to_status": 1,
        "r1": 1.5462970926702653,
        "x1": 2.480502832638317,
        "c1": 5.259804236206777e-08,
        "tan1": 0.0,
        "r0": 0.3,
        "x0": 0.3,
        "c0": 1e-09,
        "tan0": 0.0,
        "i_n": 611.5058793965236
      },
      {
        "id": 16,
        "from_node": 4,
        "to_node": 5,
        "from_status": 1,
        "to_status": 1,
        "r1": 3.6792730419794233,
        "x1": 2.130709060104163,
        "c1": 8.465878686344782e-07,
        "tan1": 0.0,
        "r0": 0.3,
        "x0": 0.3,
        "c0": 1e-09,
        "tan0": 0.0,
        "i_n": 928.7047000696288
      },
      {
        "id": 17,
        "from_node": 5,
        "to_node": 6,
        "from_status": 1,
        "to_status": 1,
        "r1": 2.77803986388299,
        "x1": 3.406763011426437,
        "c1": 1.1725731093115698e-07,
        "tan1": 0.0,
        "r0": 0.3,
        "x0": 0.3,
        "c0": 1e-09,
        "tan0": 0.0,
        "i_n": 65.45935888677423
      },
      {
        "id": 18,
        "from_node": 6,
        "to_node": 7,
        "from_status": 1,
        "to_status": 1,
        "r1": 4.900112110661477,
        "x1": 1.4222005380395748,
        "c1": 2.1336270861708095e-07,
        "tan1": 0.0,
        "r0": 0.3,
        "x0": 0.3,
        "c0": 1e-09,
        "tan0": 0.0,
        "i_n": 897.6947208908629
      },
      {
        "id": 19,
        "from_node": 7,
        "to_node": 8,
        "from_status": 1,
        "to_status": 1,
        "r1": 3.749095699408942,
        "x1": 0.6159143393304722,
        "c1": 3.216711414573171e-07,
        "tan1": 0.0,
        "r0": 0.3,
        "x0": 0.3,
        "c0": 1e-09,
        "tan0": 0.0,
        "i_n": 250.25144657243493
      },
      {
        "id": 20,
        "from_node": 8,
        "to_node": 9,
        "from_status": 1,
        "to_status": 1,
        "r1": 1.3635296493808702,
        "x1": 0.031864432762268025,
        "c1": 5.246836368628076e-07,
        "tan1": 0.0,
        "r0": 0.3,
        "x0": 0.3,
        "c0": 1e-09,
        "tan0": 0.0,
        "i_n": 311.2991758398461
      },
      {
        "id": 21,
        "from_node": 9,
        "to_node": 10,
        "from_status": 1,
        "to_status": 1,
        "r1": 1.971047088095634,
        "x1": 0.927180785216804,
        "c1": 1.1008489041914825e-07,
        "tan1": 0.0,
        "r0": 0.3,
        "x0": 0.3,
        "c0": 1e-09,
        "tan0": 0.0,
        "i_n": 42.58548744717719
      }
    ],
    "sym_load": [
      {
        "id": 22,
        "node": 3,
        "status": 1,
        "type": 0,
        "p_specified": -87335.3285358107,
        "q_specified": -8134.695422701128
      },
      {
        "id": 23,
        "node": 5,
        "status": 1,
        "type": 1,
        "p_specified": -44919.14309834244,
        "q_specified": -5942.104776638715
      },
      {
        "id": 24,
        "node": 6,
        "status": 1,
        "type": 2,
        "p_specified": -22290.315541923817,
        "q_specified": 1953.2159676373376
      },
      {
        "id": 25,
        "node": 8,
        "status": 1,
        "type": 1,
        "p_specified": 57032.242210125754,
        "q_specified": -3839.868532701341
      },
      {
        "id": 26,
        "node": 9,
        "status": 1,
        "type": 1,
        "p_specified": -24046.125443027995,
        "q_specified": 5157.586601451934
      },
      {
        "id": 27,
        "node": 10,
        "status": 1,
        "type": 2,
        "p_specified": 74545.59541313312,
        "q_specified": -9703.461388211634
      }
    ]
  }
}